/*--------------------------------*- C++ -*----------------------------------*\
| =========                 |                                                 |
| \\      /  F ield         | OpenFOAM: The Open Source CFD Toolbox           |
|  \\    /   O peration     | Version:  v2106                                 |
|   \\  /    A nd           | Website:  www.openfoam.com                      |
|    \\/     M anipulation  |                                                 |
\*---------------------------------------------------------------------------*/
FoamFile
{
    version     2.0;
    format      ascii;
    arch        "LSB;label=32;scalar=64";
    class       polyBoundaryMesh;
    location    "constant/polyMesh";
    object      boundary;
}
// * * * * * * * * * * * * * * * * * * * * * * * * * * * * * * * * * * * * * //

3
(
    inlet
    {
        type            patch;
        physicalType    patch;
        nFaces          105;
        startFace       16975;
    }
    outlet
    {
        type            patch;
        physicalType    patch;
        nFaces          105;
        startFace       17080;
    }
    walls
    {
        type            wall;
        physicalType    wall;
        nFaces          1120;
        startFace       17185;
    }
)

// ************************************************************************* //
