/*--------------------------------*- C++ -*----------------------------------*\
| =========                 |                                                 |
| \\      /  F ield         | OpenFOAM: The Open Source CFD Toolbox           |
|  \\    /   O peration     | Version:  v2106                                 |
|   \\  /    A nd           | Website:  www.openfoam.com                      |
|    \\/     M anipulation  |                                                 |
\*---------------------------------------------------------------------------*/
FoamFile
{
    version     2.0;
    format      ascii;
    class       volScalarField;
    object      k;
}
// * * * * * * * * * * * * * * * * * * * * * * * * * * * * * * * * * * * * * //

dimensions      [0 2 -2 0 0 0 0];

internalField   uniform 1.138259379;

boundaryField
{
    inlet
    {
        type            fixedValue;
        value           uniform 1.138259379;
    }
    outlet
    {
        type            zeroGradient;
        
    }

    walls
    {
        type            kqRWallFunction;
        value           uniform 1.138259379;
    }

}


// ************************************************************************* //
